// Generated for: spectre
// Generated on: Jul  1 17:50:36 2021
// Design library name: wk_pruckaa
// Design cell name: ws_cm
// Design view name: schematic
simulator lang=spectre
global 0
parameters Vout=0.75\
	Iref=${Iref}\
	L11=${L11}\
 	L21=${L21}\
 	W11=${W11} \
   	W21=${W21}
include "$CDS_DIR/.xkit/setup/xh035/cadence/spectre/mos/param.scs" section=3s
include "$CDS_DIR/.xkit/setup/xh035/cadence/spectre/mos/xh035.scs" section=tm

// Library name: wk_pruckaa
// Cell name: ws_cm
// View name: schematic
M2 (Z Z 0 0) nmos m=(1)*(1) w=800n l=7.6u ad=0.7u*(800n) as=0.7u*(800n) \
        pd=0.7u*2+(800n) ps=0.7u*2+(800n) nrd=0.3u/(800n) nrs=0.3u/(800n) \
        par1=((1)*(1))
M21 (A Z Y 0) nmos m=(1)*(1) w=W21 l=L21 ad=0.7u*(W21) as=0.7u*(W21) \
        pd=0.7u*2+(W21) ps=0.7u*2+(W21) nrd=0.3u/(W21) nrs=0.3u/(W21) \
        par1=((1)*(1))
M22 (OUT Z X 0) nmos m=(1)*(1) w=W21 l=L21 ad=0.7u*(W21) as=0.7u*(W21) \
        pd=0.7u*2+(W21) ps=0.7u*2+(W21) nrd=0.3u/(W21) nrs=0.3u/(W21) \
        par1=((1)*(1))
M12 (X A 0 0) nmos m=(1)*(1) w=W11 l=L11 ad=0.7u*(W11) as=0.7u*(W11) \
        pd=0.7u*2+(W11) ps=0.7u*2+(W11) nrd=0.3u/(W11) nrs=0.3u/(W11) \
        par1=((1)*(1))
M11 (Y A 0 0) nmos m=(1)*(1) w=W11 l=L11 ad=0.7u*(W11) as=0.7u*(W11) \
        pd=0.7u*2+(W11) ps=0.7u*2+(W11) nrd=0.3u/(W11) nrs=0.3u/(W11) \
        par1=((1)*(1))
I1 (VDD Z) isource dc=Iref/2 type=dc
I0 (VDD A) isource dc=Iref type=dc
V2 (OUT 0) vsource dc=Vout type=dc
V0 (VDD 0) vsource dc=3.3 type=dc
simulatorOptions options psfversion="1.1.0" reltol=1e-3 vabstol=1e-6 \
    iabstol=1e-12 temp=27 tnom=27 scalem=1.0 scale=1.0 compatible=spice2 \
    gmin=1e-12 rforce=1 maxnotes=5 maxwarns=5 digits=5 cols=80 pivrel=1e-3 \
    sensfile="../psf/sens.output" checklimitdest=both 
dc dc dev=V2 param=dc start=0 stop=3.3 step=10m oppoint=rawfile \
    maxiters=150 maxsteps=10000 annotate=status
modelParameter info what=models where=rawfile
element info what=inst where=rawfile
outputParameter info what=output where=rawfile
designParamVals info what=parameters where=rawfile
primitives info what=primitives where=rawfile
subckts info what=subckts where=rawfile
save M22.m1:ids A 
saveOptions options save=selected rawfmt=nutascii
